! Small 10km domain centered on Bloomington, IN
 &dimparam
 iy     = 160,
 jx     = 300,
 kz     = 18,
 nsg    = 1,
 /
 &geoparam
 iproj = 'LAMCON',
 ds = 10.0,
 ptop = 5.0,
 clat = 39.1653,
 clon = -86.5264,
 plat = 39.1653,
 plon = -86.5264,
 truelatl = 30.0,
 truelath = 60.0,
 i_band = 0,
 /
 &terrainparam
 domname = '1btown_10km',
 lakedpth = .false.,
 fudge_lnd   = .false.,
 fudge_lnd_s = .false.,
 fudge_tex   = .false.,
 fudge_tex_s = .false.,
 dirter = './1input',
 inpter = '/N/project/obrienta_startup/regcm_input_data/',
 /
 &debugparam
 debug_level = 0,
 /
 &boundaryparam
 nspgx  = 12,
 nspgd  = 12,
 /
 &globdatparam
 ibdyfrq = 6,
 ssttyp = 'OISST',
 dattyp = 'NNRP2',
 gdate1 = 2014010100,
 gdate2 = 2014020100,
 dirglob = './1input',
 inpglob = '/N/project/obrienta_startup/regcm_input_data/',
 /
 &restartparam
 ifrest  = .false. ,
 mdate0  = 2014010200,
 mdate1  = 2014010200,
 mdate2  = 2014010900,
 /
 &timeparam
 dtrad   =    30.,
 dtabem  =    18.,
 dtsrf   =   600.,
 dt      =   15.,
 /
 &outparam
 ifsave  = .true. ,
   savfrq  =    0.,
 ifatm  = .true. ,
   atmfrq  =     6.,
 ifrad   = .true. ,
   radfrq  =     6.,
 ifsrf   = .true. ,
 ifsub   = .true. ,
   srffrq  =     3.,
 ifchem  = .false.,
   chemfrq =     6.,
 dirout='./1output'
 /
 &physicsparam
 iboudy  =          5,
 ibltyp  =          1,
 icup_lnd =         4,
 icup_ocn =         4,
 ipptls  =          1,
 iocnflx =          2,
 ipgf    =          0,
 iemiss  =          0,
 lakemod =          0,
 ichem   =          0,
 idcsst = 0,
 iseaice = 0,
 iconvlwp = 0,
 /
 &subexparam
 /
 &grellparam
 /
 &emanparam
 /
 &holtslagparam
 /
 &clm_inparm
 fpftcon = 'pft-physiology.c130503.nc',
 fsnowoptics = 'snicar_optics_5bnd_c090915.nc',
 fsnowaging = 'snicar_drdt_bst_fit_60_c070416.nc',
 /
 &clm_soilhydrology_inparm
 /
 &clm_hydrology1_inparm
 /
